[General]
network =Network
record-eventlog=true
sim-time-limit = 100s
